
OS:Version,
  {3b72adfa-fdec-4d30-b5f6-06524f105adb}, !- Handle
  2.9.1;                                  !- Version Identifier

OS:Schedule:Constant,
  {3d1edd77-101d-4c01-85e7-c6d59b0d13f2}, !- Handle
  Always On Discrete,                     !- Name
  {f5d1b9aa-7215-419d-b0e4-5dec79c498df}, !- Schedule Type Limits Name
  1;                                      !- Value

OS:ScheduleTypeLimits,
  {f5d1b9aa-7215-419d-b0e4-5dec79c498df}, !- Handle
  Always On Discrete Limits,              !- Name
  0,                                      !- Lower Limit Value
  1,                                      !- Upper Limit Value
  Discrete,                               !- Numeric Type
  Availability;                           !- Unit Type

OS:ClimateZones,
  {8a3ac41c-57d4-48e4-a48e-1f232e262211}, !- Handle
  ,                                       !- Active Institution
  ,                                       !- Active Year
  ASHRAE,                                 !- Climate Zone Institution Name 1
  ANSI/ASHRAE Standard 169,               !- Climate Zone Document Name 1
  2006,                                   !- Climate Zone Document Year 1
  5A,                                     !- Climate Zone Value 1
  CEC,                                    !- Climate Zone Institution Name 2
  California Climate Zone Descriptions,   !- Climate Zone Document Name 2
  1995,                                   !- Climate Zone Document Year 2
  ;                                       !- Climate Zone Value 2

OS:LifeCycleCost:Parameters,
  {1d4d0f18-e6dd-45c8-896c-f4f2a89e6ae5}, !- Handle
  FEMP,                                   !- Analysis Type
  ,                                       !- Discounting Convention
  ,                                       !- Inflation Approach
  ,                                       !- Real Discount Rate
  ,                                       !- Nominal Discount Rate
  ,                                       !- Inflation
  ,                                       !- Base Date Month
  ,                                       !- Base Date Year
  ,                                       !- Service Date Month
  ,                                       !- Service Date Year
  ,                                       !- Length of Study Period in Years
  ,                                       !- Tax Rate
  ,                                       !- Depreciation Method
  Yes;                                    !- Use NIST Fuel Escalation Rates

OS:YearDescription,
  {c1349a5a-d7e1-4ed9-8e5b-24480649c25c}, !- Handle
  ,                                       !- Calendar Year
  Sunday;                                 !- Day of Week for Start Day

OS:RadianceParameters,
  {8297fd56-36de-4b79-a182-b7636f4ae3e3}, !- Handle
  1,                                      !- Accumulated Rays per Record
  0,                                      !- Direct Threshold
  1,                                      !- Direct Certainty
  1,                                      !- Direct Jitter
  1,                                      !- Direct Pretest
  6,                                      !- Ambient Bounces VMX
  2,                                      !- Ambient Bounces DMX
  4050,                                   !- Ambient Divisions VMX
  512,                                    !- Ambient Divisions DMX
  256,                                    !- Ambient Supersamples
  0.001,                                  !- Limit Weight VMX
  0.001,                                  !- Limit Weight DMX
  500,                                    !- Klems Sampling Density
  146;                                    !- Sky Discretization Resolution

OS:SimulationControl,
  {7c57f4fc-548f-44e7-a438-1feca6a75629}, !- Handle
  Yes,                                    !- Do Zone Sizing Calculation
  Yes,                                    !- Do System Sizing Calculation
  Yes,                                    !- Do Plant Sizing Calculation
  No;                                     !- Run Simulation for Sizing Periods

OS:Sizing:Parameters,
  {ee365675-827e-489e-9a24-0f596988dec4}, !- Handle
  1.25,                                   !- Heating Sizing Factor
  1.15;                                   !- Cooling Sizing Factor

OS:ProgramControl,
  {8a7b938e-cdcb-40af-82b1-79c267c36bae}; !- Handle

OS:Timestep,
  {31824a36-2f0f-4919-a534-cdb00e20d2e0}, !- Handle
  6;                                      !- Number of Timesteps per Hour

OS:OutputControl:ReportingTolerances,
  {275082a5-6cfd-4756-972e-8810ab253e29}; !- Handle

OS:ConvergenceLimits,
  {fcca1605-8471-4f2f-a485-a59582311771}; !- Handle

OS:ShadowCalculation,
  {d875de65-75c7-4d9d-883e-07bd79421b67}, !- Handle
  7,                                      !- Calculation Frequency
  15000;                                  !- Maximum Figures in Shadow Overlap Calculations

OS:SurfaceConvectionAlgorithm:Inside,
  {5add9a33-b760-4e82-a0f9-3ae0e369b9c4}, !- Handle
  TARP;                                   !- Algorithm

OS:SurfaceConvectionAlgorithm:Outside,
  {0257be16-14fc-418e-bc73-178201ccc4ec}, !- Handle
  DOE-2;                                  !- Algorithm

OS:HeatBalanceAlgorithm,
  {5a22c4c4-a6a6-4769-b0a8-f79498f98a6d}, !- Handle
  ConductionTransferFunction,             !- Algorithm
  200;                                    !- Surface Temperature Upper Limit {C}

OS:ZoneAirHeatBalanceAlgorithm,
  {24c912f8-6f7f-4792-8ea0-a8d47b3c41a1}, !- Handle
  AnalyticalSolution;                     !- Algorithm

OS:ZoneAirContaminantBalance,
  {07e7d420-4b9b-4760-8a70-01b36aa6074f}; !- Handle

OS:ZoneCapacitanceMultiplier:ResearchSpecial,
  {91056672-db13-4057-9cb7-7ac44d24bfc5}, !- Handle
  ,                                       !- Temperature Capacity Multiplier
  ,                                       !- Humidity Capacity Multiplier
  ;                                       !- Carbon Dioxide Capacity Multiplier

OS:RunPeriod,
  {17c33f47-c9b9-463a-84bc-12596f349148}, !- Handle
  Run Period 1,                           !- Name
  1,                                      !- Begin Month
  1,                                      !- Begin Day of Month
  12,                                     !- End Month
  31,                                     !- End Day of Month
  ,                                       !- Use Weather File Holidays and Special Days
  ,                                       !- Use Weather File Daylight Saving Period
  ,                                       !- Apply Weekend Holiday Rule
  ,                                       !- Use Weather File Rain Indicators
  ,                                       !- Use Weather File Snow Indicators
  ;                                       !- Number of Times Runperiod to be Repeated

OS:Building,
  {e0ce3521-4e53-4eca-8017-2f1c8dec2b50}, !- Handle
  Building 1,                             !- Name
  ,                                       !- Building Sector Type
  ,                                       !- North Axis {deg}
  ,                                       !- Nominal Floor to Floor Height {m}
  ,                                       !- Space Type Name
  {77c3da18-e97e-4cce-a236-aa4921265383}, !- Default Construction Set Name
  ,                                       !- Default Schedule Set Name
  ,                                       !- Standards Number of Stories
  ,                                       !- Standards Number of Above Ground Stories
  ,                                       !- Standards Template
  ,                                       !- Standards Building Type
  ,                                       !- Standards Number of Living Units
  ,                                       !- Relocatable
  ;                                       !- Nominal Floor to Ceiling Height {m}

OS:Facility,
  {b6e6be84-f909-42a5-9deb-ef70c0296721}; !- Handle

OS:Site,
  {f38b0e3c-04e1-4822-940e-9b46c436222c}, !- Handle
  Chicago Midway Ap,                      !- Name
  41.78,                                  !- Latitude {deg}
  -87.75,                                 !- Longitude {deg}
  -6,                                     !- Time Zone {hr}
  186,                                    !- Elevation {m}
  ;                                       !- Terrain

OS:BuildingStory,
  {f919e7c9-eb2d-4b18-9a47-209bf54ef30b}, !- Handle
  Building Story 1,                       !- Name
  0,                                      !- Nominal Z Coordinate {m}
  2.87,                                   !- Nominal Floor to Floor Height {m}
  ,                                       !- Default Construction Set Name
  ,                                       !- Default Schedule Set Name
  {2f5db3fa-8745-44df-b3c1-927b12d1fefe}, !- Group Rendering Name
  ;                                       !- Nominal Floor to Ceiling Height {m}

OS:Space,
  {85f371d6-52f6-4e4f-bd82-601b7234d22c}, !- Handle
  Office,                                 !- Name
  {617ad9ac-a772-4823-9c7e-087b05d61c5e}, !- Space Type Name
  ,                                       !- Default Construction Set Name
  ,                                       !- Default Schedule Set Name
  -0,                                     !- Direction of Relative North {deg}
  5.6,                                    !- X Origin {m}
  4.35,                                   !- Y Origin {m}
  0.71,                                   !- Z Origin {m}
  {f919e7c9-eb2d-4b18-9a47-209bf54ef30b}, !- Building Story Name
  {dbd05ecf-9a53-483b-8692-3f70e570c428}, !- Thermal Zone Name
  ,                                       !- Part of Total Floor Area
  ,                                       !- Design Specification Outdoor Air Object Name
  ;                                       !- Building Unit Name

OS:Surface,
  {7efb4650-b4e7-4a71-ad61-8032471880dd}, !- Handle
  Surface 1,                              !- Name
  Floor,                                  !- Surface Type
  ,                                       !- Construction Name
  {85f371d6-52f6-4e4f-bd82-601b7234d22c}, !- Space Name
  Outdoors,                               !- Outside Boundary Condition
  ,                                       !- Outside Boundary Condition Object
  SunExposed,                             !- Sun Exposure
  WindExposed,                            !- Wind Exposure
  ,                                       !- View Factor to Ground
  ,                                       !- Number of Vertices
  0, 0, 0,                                !- X,Y,Z Vertex 1 {m}
  0, -4.35, 0,                            !- X,Y,Z Vertex 2 {m}
  -5.6, -4.35, 0,                         !- X,Y,Z Vertex 3 {m}
  -5.6, 0, 0;                             !- X,Y,Z Vertex 4 {m}

OS:Surface,
  {551ffbde-a5d3-49df-8bfe-323ce987d822}, !- Handle
  Surface 2,                              !- Name
  Wall,                                   !- Surface Type
  {fc1681ef-7b97-4a9d-bec9-05ea684a4ba1}, !- Construction Name
  {85f371d6-52f6-4e4f-bd82-601b7234d22c}, !- Space Name
  Surface,                                !- Outside Boundary Condition
  {62d2bb26-4424-48bb-8235-1f00ae486e02}, !- Outside Boundary Condition Object
  NoSun,                                  !- Sun Exposure
  NoWind,                                 !- Wind Exposure
  ,                                       !- View Factor to Ground
  ,                                       !- Number of Vertices
  0, -4.35, 2.87,                         !- X,Y,Z Vertex 1 {m}
  0, -4.35, 0,                            !- X,Y,Z Vertex 2 {m}
  0, 0, 0,                                !- X,Y,Z Vertex 3 {m}
  0, 0, 2.87;                             !- X,Y,Z Vertex 4 {m}

OS:Surface,
  {0323f2b9-2cb9-4363-a6ea-c0eadc4301a2}, !- Handle
  Surface 3,                              !- Name
  Wall,                                   !- Surface Type
  ,                                       !- Construction Name
  {85f371d6-52f6-4e4f-bd82-601b7234d22c}, !- Space Name
  Surface,                                !- Outside Boundary Condition
  {4984358c-ed94-40d1-8081-6de770df0b3d}, !- Outside Boundary Condition Object
  NoSun,                                  !- Sun Exposure
  NoWind,                                 !- Wind Exposure
  ,                                       !- View Factor to Ground
  ,                                       !- Number of Vertices
  -2.23, -4.35, 2.16,                     !- X,Y,Z Vertex 1 {m}
  -2.23, -4.35, 0,                        !- X,Y,Z Vertex 2 {m}
  0, -4.35, 0,                            !- X,Y,Z Vertex 3 {m}
  0, -4.35, 2.16;                         !- X,Y,Z Vertex 4 {m}

OS:Surface,
  {32d0b65d-4383-4f84-8603-86cfb7085ec3}, !- Handle
  Surface 4,                              !- Name
  Wall,                                   !- Surface Type
  ,                                       !- Construction Name
  {85f371d6-52f6-4e4f-bd82-601b7234d22c}, !- Space Name
  Outdoors,                               !- Outside Boundary Condition
  ,                                       !- Outside Boundary Condition Object
  SunExposed,                             !- Sun Exposure
  WindExposed,                            !- Wind Exposure
  ,                                       !- View Factor to Ground
  ,                                       !- Number of Vertices
  -5.6, 0, 2.87,                          !- X,Y,Z Vertex 1 {m}
  -5.6, 0, 0,                             !- X,Y,Z Vertex 2 {m}
  -5.6, -4.35, 0,                         !- X,Y,Z Vertex 3 {m}
  -5.6, -4.35, 2.87;                      !- X,Y,Z Vertex 4 {m}

OS:Surface,
  {5f0e4c28-9aa1-4483-9373-5d2b957ab163}, !- Handle
  Surface 5,                              !- Name
  Wall,                                   !- Surface Type
  {fc1681ef-7b97-4a9d-bec9-05ea684a4ba1}, !- Construction Name
  {85f371d6-52f6-4e4f-bd82-601b7234d22c}, !- Space Name
  Surface,                                !- Outside Boundary Condition
  {70300286-b368-46ef-8895-f91448172770}, !- Outside Boundary Condition Object
  NoSun,                                  !- Sun Exposure
  NoWind,                                 !- Wind Exposure
  ,                                       !- View Factor to Ground
  ,                                       !- Number of Vertices
  0, 0, 2.87,                             !- X,Y,Z Vertex 1 {m}
  0, 0, 0,                                !- X,Y,Z Vertex 2 {m}
  -5.6, 0, 0,                             !- X,Y,Z Vertex 3 {m}
  -5.6, 0, 2.87;                          !- X,Y,Z Vertex 4 {m}

OS:Surface,
  {b0d6475f-85d9-45b7-84b8-4934ca848a58}, !- Handle
  Surface 6,                              !- Name
  RoofCeiling,                            !- Surface Type
  ,                                       !- Construction Name
  {85f371d6-52f6-4e4f-bd82-601b7234d22c}, !- Space Name
  Outdoors,                               !- Outside Boundary Condition
  ,                                       !- Outside Boundary Condition Object
  SunExposed,                             !- Sun Exposure
  WindExposed,                            !- Wind Exposure
  ,                                       !- View Factor to Ground
  ,                                       !- Number of Vertices
  0, -4.35, 2.87,                         !- X,Y,Z Vertex 1 {m}
  0, 0, 2.87,                             !- X,Y,Z Vertex 2 {m}
  -5.6, 0, 2.87,                          !- X,Y,Z Vertex 3 {m}
  -5.6, -4.35, 2.87;                      !- X,Y,Z Vertex 4 {m}

OS:Space,
  {f0b67e7c-725c-4774-9943-fe2fbeb7f978}, !- Handle
  Living Room,                            !- Name
  {e02d53db-6a4e-4927-a536-67802d13d6b3}, !- Space Type Name
  ,                                       !- Default Construction Set Name
  ,                                       !- Default Schedule Set Name
  -0,                                     !- Direction of Relative North {deg}
  10.6,                                   !- X Origin {m}
  4.35,                                   !- Y Origin {m}
  0.71,                                   !- Z Origin {m}
  {f919e7c9-eb2d-4b18-9a47-209bf54ef30b}, !- Building Story Name
  {a3b682f8-2ea8-4b4d-a9d8-a8fa47761f65}, !- Thermal Zone Name
  ,                                       !- Part of Total Floor Area
  ,                                       !- Design Specification Outdoor Air Object Name
  ;                                       !- Building Unit Name

OS:Surface,
  {e6facd45-920d-4217-a3c2-dd516a074cd4}, !- Handle
  Surface 7,                              !- Name
  Floor,                                  !- Surface Type
  ,                                       !- Construction Name
  {f0b67e7c-725c-4774-9943-fe2fbeb7f978}, !- Space Name
  Outdoors,                               !- Outside Boundary Condition
  ,                                       !- Outside Boundary Condition Object
  SunExposed,                             !- Sun Exposure
  WindExposed,                            !- Wind Exposure
  ,                                       !- View Factor to Ground
  ,                                       !- Number of Vertices
  2.5, 0, 0,                              !- X,Y,Z Vertex 1 {m}
  2.5, -4.35, 0,                          !- X,Y,Z Vertex 2 {m}
  -5, -4.35, 0,                           !- X,Y,Z Vertex 3 {m}
  -5, 0, 0;                               !- X,Y,Z Vertex 4 {m}

OS:Surface,
  {3ce4d80f-5299-4099-a7fb-060d00c951c1}, !- Handle
  Surface 8,                              !- Name
  Wall,                                   !- Surface Type
  ,                                       !- Construction Name
  {f0b67e7c-725c-4774-9943-fe2fbeb7f978}, !- Space Name
  Surface,                                !- Outside Boundary Condition
  {4116b20c-e4ab-43d7-bc0a-4d3c32f09431}, !- Outside Boundary Condition Object
  NoSun,                                  !- Sun Exposure
  NoWind,                                 !- Wind Exposure
  ,                                       !- View Factor to Ground
  ,                                       !- Number of Vertices
  2.5, 0, 2.87,                           !- X,Y,Z Vertex 1 {m}
  2.5, 0, 0,                              !- X,Y,Z Vertex 2 {m}
  0, 0, 0,                                !- X,Y,Z Vertex 3 {m}
  0, 0, 2.87;                             !- X,Y,Z Vertex 4 {m}

OS:Surface,
  {3489d663-3261-4ab1-9bad-9adaf6fee1a6}, !- Handle
  Surface 9,                              !- Name
  Wall,                                   !- Surface Type
  {fc1681ef-7b97-4a9d-bec9-05ea684a4ba1}, !- Construction Name
  {f0b67e7c-725c-4774-9943-fe2fbeb7f978}, !- Space Name
  Surface,                                !- Outside Boundary Condition
  {14a0a340-9c5a-47be-8fe9-6334590cecb6}, !- Outside Boundary Condition Object
  NoSun,                                  !- Sun Exposure
  NoWind,                                 !- Wind Exposure
  ,                                       !- View Factor to Ground
  ,                                       !- Number of Vertices
  2.5, -4.35, 2.87,                       !- X,Y,Z Vertex 1 {m}
  2.5, -4.35, 0,                          !- X,Y,Z Vertex 2 {m}
  2.5, 0, 0,                              !- X,Y,Z Vertex 3 {m}
  2.5, 0, 2.87;                           !- X,Y,Z Vertex 4 {m}

OS:Surface,
  {85be1571-f985-4bd0-a3b0-e83ab2838154}, !- Handle
  Surface 10,                             !- Name
  Wall,                                   !- Surface Type
  ,                                       !- Construction Name
  {f0b67e7c-725c-4774-9943-fe2fbeb7f978}, !- Space Name
  Outdoors,                               !- Outside Boundary Condition
  ,                                       !- Outside Boundary Condition Object
  SunExposed,                             !- Sun Exposure
  WindExposed,                            !- Wind Exposure
  ,                                       !- View Factor to Ground
  ,                                       !- Number of Vertices
  -5, -4.35, 2.87,                        !- X,Y,Z Vertex 1 {m}
  -5, -4.35, 2.16,                        !- X,Y,Z Vertex 2 {m}
  -0.879999999999999, -4.35, 2.16,        !- X,Y,Z Vertex 3 {m}
  -0.879999999999999, -4.35, 2.87;        !- X,Y,Z Vertex 4 {m}

OS:Surface,
  {62d2bb26-4424-48bb-8235-1f00ae486e02}, !- Handle
  Surface 11,                             !- Name
  Wall,                                   !- Surface Type
  {fc1681ef-7b97-4a9d-bec9-05ea684a4ba1}, !- Construction Name
  {f0b67e7c-725c-4774-9943-fe2fbeb7f978}, !- Space Name
  Surface,                                !- Outside Boundary Condition
  {551ffbde-a5d3-49df-8bfe-323ce987d822}, !- Outside Boundary Condition Object
  NoSun,                                  !- Sun Exposure
  NoWind,                                 !- Wind Exposure
  ,                                       !- View Factor to Ground
  ,                                       !- Number of Vertices
  -5, 0, 2.87,                            !- X,Y,Z Vertex 1 {m}
  -5, 0, 0,                               !- X,Y,Z Vertex 2 {m}
  -5, -4.35, 0,                           !- X,Y,Z Vertex 3 {m}
  -5, -4.35, 2.87;                        !- X,Y,Z Vertex 4 {m}

OS:Surface,
  {a99f8737-b859-43cd-aea5-cf8d3bb54a95}, !- Handle
  Surface 12,                             !- Name
  Wall,                                   !- Surface Type
  ,                                       !- Construction Name
  {f0b67e7c-725c-4774-9943-fe2fbeb7f978}, !- Space Name
  Surface,                                !- Outside Boundary Condition
  {c81e5a26-b321-495d-8991-dd9b8d363d3d}, !- Outside Boundary Condition Object
  NoSun,                                  !- Sun Exposure
  NoWind,                                 !- Wind Exposure
  ,                                       !- View Factor to Ground
  ,                                       !- Number of Vertices
  -2.5, 0, 2.87,                          !- X,Y,Z Vertex 1 {m}
  -2.5, 0, 0,                             !- X,Y,Z Vertex 2 {m}
  -5, 0, 0,                               !- X,Y,Z Vertex 3 {m}
  -5, 0, 2.87;                            !- X,Y,Z Vertex 4 {m}

OS:Surface,
  {6412ee23-069f-4816-ac18-d84b11fb5513}, !- Handle
  Surface 13,                             !- Name
  Wall,                                   !- Surface Type
  ,                                       !- Construction Name
  {f0b67e7c-725c-4774-9943-fe2fbeb7f978}, !- Space Name
  Surface,                                !- Outside Boundary Condition
  {7323f95b-903c-4ea7-b354-87cddffd9af2}, !- Outside Boundary Condition Object
  NoSun,                                  !- Sun Exposure
  NoWind,                                 !- Wind Exposure
  ,                                       !- View Factor to Ground
  ,                                       !- Number of Vertices
  0, 0, 2.87,                             !- X,Y,Z Vertex 1 {m}
  0, 0, 0,                                !- X,Y,Z Vertex 2 {m}
  -2.5, 0, 0,                             !- X,Y,Z Vertex 3 {m}
  -2.5, 0, 2.87;                          !- X,Y,Z Vertex 4 {m}

OS:Surface,
  {624390c9-d58d-4ee1-9c4d-7920915afa5b}, !- Handle
  Surface 14,                             !- Name
  RoofCeiling,                            !- Surface Type
  ,                                       !- Construction Name
  {f0b67e7c-725c-4774-9943-fe2fbeb7f978}, !- Space Name
  Outdoors,                               !- Outside Boundary Condition
  ,                                       !- Outside Boundary Condition Object
  SunExposed,                             !- Sun Exposure
  WindExposed,                            !- Wind Exposure
  ,                                       !- View Factor to Ground
  ,                                       !- Number of Vertices
  2.5, -4.35, 2.87,                       !- X,Y,Z Vertex 1 {m}
  2.5, 0, 2.87,                           !- X,Y,Z Vertex 2 {m}
  -5, 0, 2.87,                            !- X,Y,Z Vertex 3 {m}
  -5, -4.35, 2.87;                        !- X,Y,Z Vertex 4 {m}

OS:Space,
  {324d61f4-157e-4ebe-830f-d64993bb01c6}, !- Handle
  Master Bedroom,                         !- Name
  {dc144420-9a0e-46e3-84c9-0217457923cb}, !- Space Type Name
  ,                                       !- Default Construction Set Name
  ,                                       !- Default Schedule Set Name
  -0,                                     !- Direction of Relative North {deg}
  15.54,                                  !- X Origin {m}
  8.7,                                    !- Y Origin {m}
  0.71,                                   !- Z Origin {m}
  {f919e7c9-eb2d-4b18-9a47-209bf54ef30b}, !- Building Story Name
  {b26d504f-0f61-4dff-95af-009c83e30cbb}, !- Thermal Zone Name
  ,                                       !- Part of Total Floor Area
  ,                                       !- Design Specification Outdoor Air Object Name
  ;                                       !- Building Unit Name

OS:Surface,
  {5bc5e57b-e305-40ae-9381-f5c99372d78a}, !- Handle
  Surface 15,                             !- Name
  Floor,                                  !- Surface Type
  ,                                       !- Construction Name
  {324d61f4-157e-4ebe-830f-d64993bb01c6}, !- Space Name
  Outdoors,                               !- Outside Boundary Condition
  ,                                       !- Outside Boundary Condition Object
  SunExposed,                             !- Sun Exposure
  WindExposed,                            !- Wind Exposure
  ,                                       !- View Factor to Ground
  ,                                       !- Number of Vertices
  1.36, -2.44, 0,                         !- X,Y,Z Vertex 1 {m}
  1.36, -8.7, 0,                          !- X,Y,Z Vertex 2 {m}
  -2.44, -8.7, 0,                         !- X,Y,Z Vertex 3 {m}
  -2.44, -2.44, 0;                        !- X,Y,Z Vertex 4 {m}

OS:Surface,
  {1a923d91-e9ab-4c2d-b9c5-07c65b493d51}, !- Handle
  Surface 16,                             !- Name
  Wall,                                   !- Surface Type
  {fc1681ef-7b97-4a9d-bec9-05ea684a4ba1}, !- Construction Name
  {324d61f4-157e-4ebe-830f-d64993bb01c6}, !- Space Name
  Surface,                                !- Outside Boundary Condition
  {6832d726-5996-4834-95b1-c86938502029}, !- Outside Boundary Condition Object
  NoSun,                                  !- Sun Exposure
  NoWind,                                 !- Wind Exposure
  ,                                       !- View Factor to Ground
  ,                                       !- Number of Vertices
  1.36, 0, 2.87,                          !- X,Y,Z Vertex 1 {m}
  1.36, 0, 0,                             !- X,Y,Z Vertex 2 {m}
  0, 0, 0,                                !- X,Y,Z Vertex 3 {m}
  0, 0, 2.87;                             !- X,Y,Z Vertex 4 {m}

OS:Surface,
  {1c9c1a14-c985-491a-8d8a-09ef1505d039}, !- Handle
  Surface 17,                             !- Name
  Wall,                                   !- Surface Type
  ,                                       !- Construction Name
  {324d61f4-157e-4ebe-830f-d64993bb01c6}, !- Space Name
  Outdoors,                               !- Outside Boundary Condition
  ,                                       !- Outside Boundary Condition Object
  SunExposed,                             !- Sun Exposure
  WindExposed,                            !- Wind Exposure
  ,                                       !- View Factor to Ground
  ,                                       !- Number of Vertices
  1.36, -8.7, 2.87,                       !- X,Y,Z Vertex 1 {m}
  1.36, -8.7, 0,                          !- X,Y,Z Vertex 2 {m}
  1.36, 0, 0,                             !- X,Y,Z Vertex 3 {m}
  1.36, 0, 2.87;                          !- X,Y,Z Vertex 4 {m}

OS:Surface,
  {422d9fbf-9add-4389-8b92-4500f20a0926}, !- Handle
  Surface 18,                             !- Name
  Wall,                                   !- Surface Type
  ,                                       !- Construction Name
  {324d61f4-157e-4ebe-830f-d64993bb01c6}, !- Space Name
  Outdoors,                               !- Outside Boundary Condition
  ,                                       !- Outside Boundary Condition Object
  SunExposed,                             !- Sun Exposure
  WindExposed,                            !- Wind Exposure
  ,                                       !- View Factor to Ground
  ,                                       !- Number of Vertices
  -2.44, -8.7, 2.87,                      !- X,Y,Z Vertex 1 {m}
  -2.44, -8.7, 0,                         !- X,Y,Z Vertex 2 {m}
  1.36, -8.7, 0,                          !- X,Y,Z Vertex 3 {m}
  1.36, -8.7, 2.87;                       !- X,Y,Z Vertex 4 {m}

OS:Surface,
  {14a0a340-9c5a-47be-8fe9-6334590cecb6}, !- Handle
  Surface 19,                             !- Name
  Wall,                                   !- Surface Type
  {fc1681ef-7b97-4a9d-bec9-05ea684a4ba1}, !- Construction Name
  {324d61f4-157e-4ebe-830f-d64993bb01c6}, !- Space Name
  Surface,                                !- Outside Boundary Condition
  {3489d663-3261-4ab1-9bad-9adaf6fee1a6}, !- Outside Boundary Condition Object
  NoSun,                                  !- Sun Exposure
  NoWind,                                 !- Wind Exposure
  ,                                       !- View Factor to Ground
  ,                                       !- Number of Vertices
  -2.44, -4.35, 2.87,                     !- X,Y,Z Vertex 1 {m}
  -2.44, -4.35, 0,                        !- X,Y,Z Vertex 2 {m}
  -2.44, -8.7, 0,                         !- X,Y,Z Vertex 3 {m}
  -2.44, -8.7, 2.87;                      !- X,Y,Z Vertex 4 {m}

OS:Surface,
  {c465a9df-1f6c-4130-be8c-3ee3ad7f0d52}, !- Handle
  Surface 20,                             !- Name
  Wall,                                   !- Surface Type
  ,                                       !- Construction Name
  {324d61f4-157e-4ebe-830f-d64993bb01c6}, !- Space Name
  Surface,                                !- Outside Boundary Condition